/*--------------------------------*- C++ -*----------------------------------*\
  =========                 |
  \\      /  F ield         | OpenFOAM: The Open Source CFD Toolbox
   \\    /   O peration     | Website:  https://openfoam.org
    \\  /    A nd           | Version:  11
     \\/     M anipulation  |
\*---------------------------------------------------------------------------*/
FoamFile
{
    format      ascii;
    class       dictionary;
    object      fvSolution;
}
// * * * * * * * * * * * * * * * * * * * * * * * * * * * * * * * * * * * * * //

solvers
{
    p
    {
        solver          PBiCGStab;
        // smoother        DICGaussSeidel;
        preconditioner  DIC;
        tolerance       1e-6;
        relTol          0.01;
        cacheAgglomeration no;
        minIter         15;
        maxIter         150;
    }

    pFinal
    {
        solver GAMG;
        tolerance 1e-06;
        relTol 0.0;
        smoother GaussSeidel;
        nPreSweeps 0;
        nPostSweeps 2;
        cacheAgglomeration on;
        agglomerator faceAreaPair;
        nCellsInCoarsestLevel 1000;
        mergeLevels 1;
    }

    // pFinal
    // {
    //     $p;
    //     nPreSweeps 0;
    //     nPostSweeps 2;
    //     cacheAgglomeration on;
    //     agglomerator faceAreaPair;
    //     nCellsInCoarsestLevel 1000;
    //     mergeLevels     1;
    //     relTol          0.0;
    // }

    "pcorr.*"
    {
        $p;
        tolerance       1e-2;
        relTol          0;
    }

    MeshPhi
    {
        solver          smoothSolver;
        smoother        symGaussSeidel;
        tolerance       1e-2;
        relTol          0.0;
    }

    "(U|k|epsilon|omega)"
    {
        solver PBiCGStab;
        preconditioner DILU;
        minIter         4;
        tolerance       1e-8;
        relTol          0.0;
    }

    "(U|k|epsilon|omega)Final"
    {
        $U;
        relTol          0;
    }
}

SIMPLE
{
    nNonOrthogonalCorrectors 2;
    consistent yes;
}

potentialFlow
{
    nNonOrthogonalCorrectors 10;
}

PIMPLE
{
    momentumPredictor   on;
    correctPhi          yes;
    correctMeshPhi      yes;
    nOuterCorrectors    1;
    nCorrectors         3;
    nNonOrthogonalCorrectors 1;

    residualControl
    {
        p               2.5e-6;
        U               1e-6;
        k               4e-6;
        epsilon         1e-6;
        omega           2e-6;
    }
}

relaxationFactors
{
    fields
    {
        p               0.3;
    }
    equations
    {
        U               0.7;
        k               0.7;
        omega           0.7;
        epsilon         0.7;
    }
}

cache
{
    grad(U);
}

// ************************************************************************* //
