/*--------------------------------*- C++ -*----------------------------------*\
  =========                 |
  \\      /  F ield         | OpenFOAM: The Open Source CFD Toolbox
   \\    /   O peration     | Website:  https://openfoam.org
    \\  /    A nd           | Version:  11
     \\/     M anipulation  |
\*---------------------------------------------------------------------------*/
FoamFile
{
    format      ascii;
    class       dictionary;
    location    "system";
    object      fvSchemes;
}
// * * * * * * * * * * * * * * * * * * * * * * * * * * * * * * * * * * * * * //

ddtSchemes
{
    default         steadyState;
}

gradSchemes
{
    /* default         Gauss linear; */
    default         cellMDLimited Gauss linear 0.5;
    // limited         cellLimited Gauss linear 0.5;
    limited         cellLimited Gauss linear 1.0;
    grad(U)         $limited;
    grad(k)         $limited;
    grad(omega)     $limited;
    grad(epsilon)   $limited;
}

divSchemes
{
    default             none;
    div(phi,U)          Gauss linearUpwind grad(U);  
    // div(phi,U)         Gauss upwind; 
    div(phi,omega)      Gauss upwind; 
    div(phi,k)          Gauss upwind;
    div(phi,epsilon)    Gauss upwind;
    div((nuEff*dev2(T(grad(U))))) Gauss linear;
}

laplacianSchemes
{
    default         Gauss linear limited corrected 0.333;
    // default         Gauss linear limited corrected 0.777;
}

interpolationSchemes
{
    default         linear;
}

snGradSchemes
{
     default         limited corrected 0.333; 
    // default         limited corrected 0.777;
}

wallDist
{
    method meshWave;
}


// ************************************************************************* //
